#!/usr/bin/perl
#aero.cgi - calculates gross pay and creates a dynamic Web page
#that contains form data and the gross pay
print "Content-type: text/html\n\n";

#prevent Perl from creating undeclared variables

#declare variables

#assign values to variables

#calculate gross pay amount

#create Web page
print "<HTML>\n";
print "<HEAD><TITLE>AeroDynamics</TITLE><BASEFONT SIZE=5></HEAD>\n";
print "<H1>Gross Pay Calculation</H1>\n";
print "<BODY>\n";

print "</BODY>\n";
print "</HTML>\n";
